Circuit: * D:\Study material\Draft1.asc

WARNING: Less than two connections to node NC_01.  This node is used by V1.
WARNING: Less than two connections to node NC_02.  This node is used by V2.
WARNING: Less than two connections to node NC_03.  This node is used by V3.
Direct Newton iteration for .op point succeeded.

Date: Mon Feb 28 20:20:18 2022
Total elapsed time: 0.055 seconds.

tnom = 27
temp = 27
method = modified trap
totiter = 2037
traniter = 2034
tranpoints = 1018
accept = 1018
rejected = 0
matrix size = 6
fillins = 0
solver = Normal
Matrix Compiler1: 74 bytes object code size  0.0/0.0/[0.0]
Matrix Compiler2: off  [0.0]/0.0/0.0

