Circuit: * D:\Study material\Maximum_Power_Transfer_Theorem_1.asc

Direct Newton iteration for .op point succeeded.

Date: Mon Feb 28 19:57:15 2022
Total elapsed time: 0.485 seconds.

tnom = 27
temp = 27
method = trap
totiter = 3
traniter = 0
tranpoints = 0
accept = 0
rejected = 0
matrix size = 4
fillins = 0
solver = Normal
Matrix Compiler1: 64 bytes object code size
Matrix Compiler2: 214 bytes object code size
