Circuit: * D:\Study material\Thevenin's_Norton's_Theorem_1.asc

Direct Newton iteration for .op point succeeded.

Date: Mon Feb 28 19:31:19 2022
Total elapsed time: 0.055 seconds.

tnom = 27
temp = 27
method = modified trap
totiter = 237
traniter = 234
tranpoints = 118
accept = 118
rejected = 0
matrix size = 31
fillins = 6
solver = Normal
Matrix Compiler1: 1.38 KB object code size  0.2/0.1/[0.1]
Matrix Compiler2: off  [0.1]/0.2/0.2

